/*--------------------------------*- C++ -*----------------------------------*\
| =========                 |                                                 |
| \\      /  F ield         | OpenFOAM: The Open Source CFD Toolbox           |
|  \\    /   O peration     | Version:  2.2.2                                 |
|   \\  /    A nd           | Web:      www.OpenFOAM.org                      |
|    \\/     M anipulation  |                                                 |
\*---------------------------------------------------------------------------*/
FoamFile
{
    version     2.0;
    format      ascii;
    class       dictionary;
    object      blockMeshDict;
}
// * * * * * * * * * * * * * * * * * * * * * * * * * * * * * * * * * * * * * //

convertToMeters 0.001;

vertices
(
    (15 0 15) //0
    (35 0 15)
    (35 0 35)
    (15 0 35)

    (8.383 0 8.383) //4
    (41.617 0 8.383)
    (41.617 0 41.617)
    (8.383 0 41.617)

    (0   0   0) //8
    (50  0   0)
    (50  0   50)
    (0   0   50)

    (15 50 15) //12
    (35 50 15)
    (35 50 35)
    (15 50 35)

    (8.383 50 8.383) //16
    (41.617 50 8.383)
    (41.617 50 41.617)
    (8.383 50 41.617)

    (0   50   0) //20
    (50  50   0)
    (50  50   50)
    (0   50   50)
);

blocks
(
    hex (0 1 13 12 3 2 14 15)   (12 24 12) simpleGrading (1 1 1) // 0
    hex (4 5 17 16 0 1 13 12)   (12 24 12) simpleGrading (1 1 3) // up o-grid
    hex (5 6 18 17 1 2 14 13)   (12 24 12) simpleGrading (1 1 3)
    hex (6 7 19 18 2 3 15 14)   (12 24 12) simpleGrading (1 1 3)
    hex (7 4 16 19 3 0 12 15)   (12 24 12) simpleGrading (1 1 3) // 4
    hex (8 9 21 20 4 5 17 16)   (12 24 8) simpleGrading (1 1 1) // up external
    hex (9 10 22 21 5 6 18 17)  (12 24 8) simpleGrading (1 1 1) //right external
    hex (10 11 23 22 6 7 19 18) (12 24 8) simpleGrading (1 1 1) //down ext
    hex (11 8 20 23 7 4 16 19)  (12 24 8) simpleGrading (1 1 1) //left ext
);

edges
(
    // inner circle
    arc 0 1 (25 0 13.5)
    arc 1 2 (36.5 0 25)
    arc 2 3 (25 0 36.5)
    arc 3 0 (13.5 0 25)
    arc 12 13 (25 50 13.5)
    arc 13 14 (36.5 50 25)
    arc 14 15 (25 50 36.5)
    arc 15 12 (13.5 50 25)

    arc 4 5 (25 0 1.5)
    arc 5 6 (48.5 0 25)
    arc 6 7 (25 0 48.5)
    arc 7 4 (1.5 0 25)
    arc 16 17 (25 50 1.5)
    arc 17 18 (48.5 50 25)
    arc 18 19 (25 50 48.5)
    arc 19 16 (1.5 50 25)
);

boundary
(
    transducer
    {
        type wall;
        faces
        (
            (0 1 2 3)
            (0 4 5 1)
            (1 5 6 2)
            (2 6 7 3)
            (0 3 7 4)
        );
    }
    
    walls
    {
        type wall;
        faces
        (
            (8 20 21 9)
            (9 21 22 10)
            (10 22 23 11)
            (8 11 23 20)
        );
    }
    
    bottom
    {
        type wall;
        faces
        (
            (4 8 9 5)
            (5 9 10 6)
            (6 10 11 7)
            (4 7 11 8)
        );
    }

    freeSurface
    {
        type wall;
        faces
        (
            (12 15 14 13)
            (12 13 17 16)
            (13 14 18 17)
            (14 15 19 18)
            (12 16 19 15)
            (16 17 21 20)
            (17 18 22 21)
            (18 19 23 22)
            (16 20 23 19)
        );
    }
);

mergePatchPairs
(
);

// ************************************************************************* //
