/*--------------------------------*- C++ -*----------------------------------*\
| =========                 |                                                 |
| \\      /  F ield         | foam-extend: Open Source CFD                    |
|  \\    /   O peration     | Version:     4.1                                |
|   \\  /    A nd           | Web:         http://www.foam-extend.org         |
|    \\/     M anipulation  | For copyright notice see file Copyright         |
\*---------------------------------------------------------------------------*/
FoamFile
{
    version     2.0;
    format      ascii;
    class       volScalarField;
    object      kSqrIm;
}
// * * * * * * * * * * * * * * * * * * * * * * * * * * * * * * * * * * * * * //

dimensions      [0 -2 0 0 0 0 0];

internalField   uniform 0;

boundaryField
{
    acrylicWalls
    {
        type            zeroGradient;
    }

    metallicWall
    {
        type            zeroGradient;
    }

    sonotrodeBottom
    {
        type            zeroGradient;
    }
    
    sonotrodeLateralWall
    {
        type            zeroGradient;
    }
}

// ************************************************************************* //
