/*--------------------------------*- C++ -*----------------------------------*\
| =========                 |                                                 |
| \\      /  F ield         | foam-extend: Open Source CFD                    |
|  \\    /   O peration     | Version:     4.1                                |
|   \\  /    A nd           | Web:         http://www.foam-extend.org         |
|    \\/     M anipulation  | For copyright notice see file Copyright         |
\*---------------------------------------------------------------------------*/
FoamFile
{
    version     2.0;
    format      ascii;
    class       dictionary;
    object      blockMeshDict;
}
// * * * * * * * * * * * * * * * * * * * * * * * * * * * * * * * * * * * * * //

convertToMeters 1;

vertices
(
    (0 0 0)
    (0.1 0 0)
    (0.1 0.01 0)
    (0 0.01 0)
    (0 0 0.01)
    (0.1 0 0.01)
    (0.1 0.01 0.01)
    (0 0.01 0.01)
);

edges
(
);

blocks
(
    hex (0 1 2 3 4 5 6 7) (1000 1 1) simpleGrading (5 1 1)
);

boundary
(
    transducer
    {
        type patch;
        faces
        (
            (0 4 7 3)
        );
    }

    freeSurface
    {
        type patch;
        faces
        (
            (1 2 6 5)
        );
    }

    walls
    {
        type empty;
        faces
        (
            (2 3 7 6)
            (0 1 5 4)
            (0 3 2 1)
            (4 5 6 7)
        );
    }
);

mergePatchPairs
(
);

// ************************************************************************* //
