/*--------------------------------*- C++ -*----------------------------------*\
| =========                 |                                                 |
| \\      /  F ield         | foam-extend: Open Source CFD                    |
|  \\    /   O peration     | Version:     4.1                                |
|   \\  /    A nd           | Web:         http://www.foam-extend.org         |
|    \\/     M anipulation  | For copyright notice see file Copyright         |
\*---------------------------------------------------------------------------*/
FoamFile
{
    version     2.0;
    format      ascii;
    class       dictionary;
    object      createPatchDict;
}
// * * * * * * * * * * * * * * * * * * * * * * * * * * * * * * * * * * * * * //

// This application/dictionary controls:
// - optional: create new patches from boundary faces (either given as
//   a set of patches or as a faceSet)
// - always: order faces on coupled patches such that they are opposite. This
//   is done for all coupled faces, not just for any patches created.
// - optional: synchronise points on coupled patches.
// - always: remove zero-sized (non-coupled) patches (that were not added)

// 1. Create cyclic:
// - specify where the faces should come from
// - specify the type of cyclic. If a rotational specify the rotationAxis
//   and centre to make matching easier
// - always create both halves in one invocation with correct 'neighbourPatch'
//   setting.
// - optionally pointSync true to guarantee points to line up.

// 2. Correct incorrect cyclic:
// This will usually fail upon loading:
//  "face 0 area does not match neighbour 2 by 0.0100005%"
//  " -- possible face ordering problem."
// - in polyMesh/boundary file:
//      - loosen matchTolerance of all cyclics to get case to load
//      - or change patch type from 'cyclic' to 'patch'
//        and regenerate cyclic as above

// Do a synchronisation of coupled points after creation of any patches.
// Note: this does not work with points that are on multiple coupled patches
//       with transformations (i.e. cyclics).
pointSync false;

patches
(
    {
        // Name of new patch
        name Walls;

        // Dictionary to construct new patch from
        patchInfo
        {
            type    fixedValue;
            value   uniform 0;
        }

        // How to construct: either from 'patches' or 'set'
        constructFrom patches;

        // If constructFrom = patches : names of patches. Wildcards allowed.
        patches (defaultFaces);

        // If constructFrom = set : name of faceSet
        // set Transducer;
    }
    {
        // Name of new patch
        name Transducer;

        // Dictionary to construct new patch from
        patchInfo
        {
            type fixedGradient;
            gradient uniform 1.57e+8;
        }

        // How to construct: either from 'patches' or 'set'
        constructFrom set;

        // If constructFrom = patches : names of patches. Wildcards allowed.
        // patches (periodic1);

        // If constructFrom = set : name of faceSet
        set Transducer;
    }
);
// ************************************************************************* //
