/*--------------------------------*- C++ -*----------------------------------*\
| =========                 |                                                 |
| \\      /  F ield         | foam-extend: Open Source CFD                    |
|  \\    /   O peration     | Version:     4.1                                |
|   \\  /    A nd           | Web:         http://www.foam-extend.org         |
|    \\/     M anipulation  | For copyright notice see file Copyright         |
\*---------------------------------------------------------------------------*/
FoamFile
{
    version     2.0;
    format      ascii;
    class       dictionary;
    location    "system";
    object      fvSolution;
}
// * * * * * * * * * * * * * * * * * * * * * * * * * * * * * * * * * * * * * //

solvers
{
}

SIMPLE
{
    nNonOrthogonalCorrectors 50;
    pRefCell        0;
    pRefValue       0;
}

blockSolver
{
    convergence 1e-6;
}

relaxationFactors
{
//     fields
//     {
//         PAcRe   0.5;
//         PAcIm   0.5;
//     }
}

// ************************************************************************* //
